*Heading
model_002 for abqbatch
*Part, name=PART-1
*Node
1, 0., 0., 0.
2, 2., 0., 0.
3, 2., 1., 0.
4, 0., 1., 0.
5, 0., 0., 1.
6, 2., 0., 1.
7, 2., 1., 1.
8, 0., 1., 1.
*Element, type=C3D8
1, 1,2,3,4,5,6,7,8
*Nset, nset=FIXED
1, 4, 5, 8
*Nset, nset=RP_LOAD
2, 3, 6, 7
*Elset, elset=ALL_ELEMENTS
1
*Surface, name=SURF_LOAD, type=ELEMENT
ALL_ELEMENTS, S2
*Solid Section, elset=ALL_ELEMENTS, material=Steel
,
** @BEGIN AUTO_MATERIAL Steel
*Material, name=Steel
*Density
7.85e-9
*Elastic
210000., 0.30
** @END AUTO_MATERIAL Steel
*End Part
*Assembly, name=ASSEMBLY
*Instance, name=PART-1-1, part=PART-1
*End Instance
*Nset, nset=RP_LOAD, instance=PART-1-1
2, 3, 6, 7
*End Assembly
*Step, name=Step-1
*Static
0.1, 1.0
*Boundary
FIXED, 1, 3, 0.
** @BEGIN AUTO_LOAD
*Cload
RP_LOAD, 2, -1.
** @END AUTO_LOAD
*Output, field
*Node Output
U, RF
*Element Output
S, E
*End Step
